
  Version,25.2;
  GlobalGeometryRules,
    LowerLeftCorner,
    Counterclockwise,
    Relative;

  Zone,
    Office,                  !- Name
    0,                       !- Direction of Relative North {deg}
    0.00,                !- X Origin {m}
    0.00,                !- Y Origin {m}
    0.00,                !- Z Origin {m}
    1,                       !- Type
    1,                       !- Multiplier
    autocalculate,           !- Ceiling Height {m}
    autocalculate;           !- Volume {m3}

  BuildingSurface:Detailed,
    Office_Wall_South,                  !- Name
    Wall,             !- Surface Type
    Medium Exterior Wall,                !- Construction Name
    Office,             !- Zone Name
    ,                        !- Space Name
    Outdoors,             !- Outside Boundary Condition
    ,         !- Outside Boundary Condition Object
    SunExposed,                   !- Sun Exposure
    WindExposed,                  !- Wind Exposure
    0.50,                    !- View Factor to Ground
    4,                       !- Number of Vertices
    0.00, 0.00, 0.00,  !- X,Y,Z ==> Vertex 1
    6.00, 0.00, 0.00,  !- X,Y,Z ==> Vertex 2
    6.00, 0.00, 4.00,  !- X,Y,Z ==> Vertex 3
    0.00, 0.00, 4.00;  !- X,Y,Z ==> Vertex 4

  BuildingSurface:Detailed,
    Office_Wall_East,                  !- Name
    Wall,             !- Surface Type
    Interior_Partition,                !- Construction Name
    Office,             !- Zone Name
    ,                        !- Space Name
    Surface,             !- Outside Boundary Condition
    Lobby_Wall_West,         !- Outside Boundary Condition Object
    NoSun,                   !- Sun Exposure
    NoWind,                  !- Wind Exposure
    0.50,                    !- View Factor to Ground
    4,                       !- Number of Vertices
    6.00, 0.00, 0.00,  !- X,Y,Z ==> Vertex 1
    6.00, 8.00, 0.00,  !- X,Y,Z ==> Vertex 2
    6.00, 8.00, 4.00,  !- X,Y,Z ==> Vertex 3
    6.00, 0.00, 4.00;  !- X,Y,Z ==> Vertex 4

  BuildingSurface:Detailed,
    Office_Wall_North,                  !- Name
    Wall,             !- Surface Type
    Interior_Partition,                !- Construction Name
    Office,             !- Zone Name
    ,                        !- Space Name
    Surface,             !- Outside Boundary Condition
    Meeting Room_Wall_South,         !- Outside Boundary Condition Object
    NoSun,                   !- Sun Exposure
    NoWind,                  !- Wind Exposure
    0.50,                    !- View Factor to Ground
    4,                       !- Number of Vertices
    6.00, 8.00, 0.00,  !- X,Y,Z ==> Vertex 1
    0.00, 8.00, 0.00,  !- X,Y,Z ==> Vertex 2
    0.00, 8.00, 4.00,  !- X,Y,Z ==> Vertex 3
    6.00, 8.00, 4.00;  !- X,Y,Z ==> Vertex 4

  BuildingSurface:Detailed,
    Office_Wall_West,                  !- Name
    Wall,             !- Surface Type
    Medium Exterior Wall,                !- Construction Name
    Office,             !- Zone Name
    ,                        !- Space Name
    Outdoors,             !- Outside Boundary Condition
    ,         !- Outside Boundary Condition Object
    SunExposed,                   !- Sun Exposure
    WindExposed,                  !- Wind Exposure
    0.50,                    !- View Factor to Ground
    4,                       !- Number of Vertices
    0.00, 8.00, 0.00,  !- X,Y,Z ==> Vertex 1
    0.00, 0.00, 0.00,  !- X,Y,Z ==> Vertex 2
    0.00, 0.00, 4.00,  !- X,Y,Z ==> Vertex 3
    0.00, 8.00, 4.00;  !- X,Y,Z ==> Vertex 4

  BuildingSurface:Detailed,
    Office_Roof,                  !- Name
    Roof,             !- Surface Type
    {ROOF_CONSTR},                !- Construction Name
    Office,             !- Zone Name
    ,                        !- Space Name
    Outdoors,             !- Outside Boundary Condition
    ,         !- Outside Boundary Condition Object
    SunExposed,                   !- Sun Exposure
    WindExposed,                  !- Wind Exposure
    0,                    !- View Factor to Ground
    4,                       !- Number of Vertices
    0.00, 8.00, 4.00,  !- X,Y,Z ==> Vertex 1
    0.00, 0.00, 4.00,  !- X,Y,Z ==> Vertex 2
    6.00, 0.00, 4.00,  !- X,Y,Z ==> Vertex 3
    6.00, 8.00, 4.00;  !- X,Y,Z ==> Vertex 4

  BuildingSurface:Detailed,
    Office_Floor,                  !- Name
    Floor,             !- Surface Type
    {FLOOR_CONSTR},                !- Construction Name
    Office,             !- Zone Name
    ,                        !- Space Name
    Ground,             !- Outside Boundary Condition
    ,         !- Outside Boundary Condition Object
    NoSun,                   !- Sun Exposure
    NoWind,                  !- Wind Exposure
    0,                    !- View Factor to Ground
    4,                       !- Number of Vertices
    0.00, 8.00, 0.00,  !- X,Y,Z ==> Vertex 1
    6.00, 8.00, 0.00,  !- X,Y,Z ==> Vertex 2
    6.00, 0.00, 0.00,  !- X,Y,Z ==> Vertex 3
    0.00, 0.00, 0.00;  !- X,Y,Z ==> Vertex 4

  Zone,
    Meeting Room,                  !- Name
    0,                       !- Direction of Relative North {deg}
    0.00,                !- X Origin {m}
    8.00,                !- Y Origin {m}
    0.00,                !- Z Origin {m}
    1,                       !- Type
    1,                       !- Multiplier
    autocalculate,           !- Ceiling Height {m}
    autocalculate;           !- Volume {m3}

  BuildingSurface:Detailed,
    Meeting Room_Wall_South,                  !- Name
    Wall,             !- Surface Type
    Interior_Partition,                !- Construction Name
    Meeting Room,             !- Zone Name
    ,                        !- Space Name
    Surface,             !- Outside Boundary Condition
    Office_Wall_North,         !- Outside Boundary Condition Object
    NoSun,                   !- Sun Exposure
    NoWind,                  !- Wind Exposure
    0.50,                    !- View Factor to Ground
    4,                       !- Number of Vertices
    0.00, 0.00, 0.00,  !- X,Y,Z ==> Vertex 1
    6.00, 0.00, 0.00,  !- X,Y,Z ==> Vertex 2
    6.00, 0.00, 4.00,  !- X,Y,Z ==> Vertex 3
    0.00, 0.00, 4.00;  !- X,Y,Z ==> Vertex 4

  BuildingSurface:Detailed,
    Meeting Room_Wall_East,                  !- Name
    Wall,             !- Surface Type
    Interior_Partition,                !- Construction Name
    Meeting Room,             !- Zone Name
    ,                        !- Space Name
    Surface,             !- Outside Boundary Condition
    Rest Room_Wall_West,         !- Outside Boundary Condition Object
    NoSun,                   !- Sun Exposure
    NoWind,                  !- Wind Exposure
    0.50,                    !- View Factor to Ground
    4,                       !- Number of Vertices
    6.00, 0.00, 0.00,  !- X,Y,Z ==> Vertex 1
    6.00, 4.00, 0.00,  !- X,Y,Z ==> Vertex 2
    6.00, 4.00, 4.00,  !- X,Y,Z ==> Vertex 3
    6.00, 0.00, 4.00;  !- X,Y,Z ==> Vertex 4

  BuildingSurface:Detailed,
    Meeting Room_Wall_North,                  !- Name
    Wall,             !- Surface Type
    Medium Exterior Wall,                !- Construction Name
    Meeting Room,             !- Zone Name
    ,                        !- Space Name
    Outdoors,             !- Outside Boundary Condition
    ,         !- Outside Boundary Condition Object
    SunExposed,                   !- Sun Exposure
    WindExposed,                  !- Wind Exposure
    0.50,                    !- View Factor to Ground
    4,                       !- Number of Vertices
    6.00, 4.00, 0.00,  !- X,Y,Z ==> Vertex 1
    0.00, 4.00, 0.00,  !- X,Y,Z ==> Vertex 2
    0.00, 4.00, 4.00,  !- X,Y,Z ==> Vertex 3
    6.00, 4.00, 4.00;  !- X,Y,Z ==> Vertex 4

  BuildingSurface:Detailed,
    Meeting Room_Wall_West,                  !- Name
    Wall,             !- Surface Type
    Medium Exterior Wall,                !- Construction Name
    Meeting Room,             !- Zone Name
    ,                        !- Space Name
    Outdoors,             !- Outside Boundary Condition
    ,         !- Outside Boundary Condition Object
    SunExposed,                   !- Sun Exposure
    WindExposed,                  !- Wind Exposure
    0.50,                    !- View Factor to Ground
    4,                       !- Number of Vertices
    0.00, 4.00, 0.00,  !- X,Y,Z ==> Vertex 1
    0.00, 0.00, 0.00,  !- X,Y,Z ==> Vertex 2
    0.00, 0.00, 4.00,  !- X,Y,Z ==> Vertex 3
    0.00, 4.00, 4.00;  !- X,Y,Z ==> Vertex 4

  BuildingSurface:Detailed,
    Meeting Room_Roof,                  !- Name
    Roof,             !- Surface Type
    {ROOF_CONSTR},                !- Construction Name
    Meeting Room,             !- Zone Name
    ,                        !- Space Name
    Outdoors,             !- Outside Boundary Condition
    ,         !- Outside Boundary Condition Object
    SunExposed,                   !- Sun Exposure
    WindExposed,                  !- Wind Exposure
    0,                    !- View Factor to Ground
    4,                       !- Number of Vertices
    0.00, 4.00, 4.00,  !- X,Y,Z ==> Vertex 1
    0.00, 0.00, 4.00,  !- X,Y,Z ==> Vertex 2
    6.00, 0.00, 4.00,  !- X,Y,Z ==> Vertex 3
    6.00, 4.00, 4.00;  !- X,Y,Z ==> Vertex 4

  BuildingSurface:Detailed,
    Meeting Room_Floor,                  !- Name
    Floor,             !- Surface Type
    {FLOOR_CONSTR},                !- Construction Name
    Meeting Room,             !- Zone Name
    ,                        !- Space Name
    Ground,             !- Outside Boundary Condition
    ,         !- Outside Boundary Condition Object
    NoSun,                   !- Sun Exposure
    NoWind,                  !- Wind Exposure
    0,                    !- View Factor to Ground
    4,                       !- Number of Vertices
    0.00, 4.00, 0.00,  !- X,Y,Z ==> Vertex 1
    6.00, 4.00, 0.00,  !- X,Y,Z ==> Vertex 2
    6.00, 0.00, 0.00,  !- X,Y,Z ==> Vertex 3
    0.00, 0.00, 0.00;  !- X,Y,Z ==> Vertex 4

  Zone,
    Lobby,                  !- Name
    0,                       !- Direction of Relative North {deg}
    6.00,                !- X Origin {m}
    0.00,                !- Y Origin {m}
    0.00,                !- Z Origin {m}
    1,                       !- Type
    1,                       !- Multiplier
    autocalculate,           !- Ceiling Height {m}
    autocalculate;           !- Volume {m3}

  BuildingSurface:Detailed,
    Lobby_Wall_South,                  !- Name
    Wall,             !- Surface Type
    Medium Exterior Wall,                !- Construction Name
    Lobby,             !- Zone Name
    ,                        !- Space Name
    Outdoors,             !- Outside Boundary Condition
    ,         !- Outside Boundary Condition Object
    SunExposed,                   !- Sun Exposure
    WindExposed,                  !- Wind Exposure
    0.50,                    !- View Factor to Ground
    4,                       !- Number of Vertices
    0.00, 0.00, 0.00,  !- X,Y,Z ==> Vertex 1
    5.00, 0.00, 0.00,  !- X,Y,Z ==> Vertex 2
    5.00, 0.00, 4.00,  !- X,Y,Z ==> Vertex 3
    0.00, 0.00, 4.00;  !- X,Y,Z ==> Vertex 4

  BuildingSurface:Detailed,
    Lobby_Wall_East,                  !- Name
    Wall,             !- Surface Type
    Medium Exterior Wall,                !- Construction Name
    Lobby,             !- Zone Name
    ,                        !- Space Name
    Outdoors,             !- Outside Boundary Condition
    ,         !- Outside Boundary Condition Object
    SunExposed,                   !- Sun Exposure
    WindExposed,                  !- Wind Exposure
    0.50,                    !- View Factor to Ground
    4,                       !- Number of Vertices
    5.00, 0.00, 0.00,  !- X,Y,Z ==> Vertex 1
    5.00, 8.00, 0.00,  !- X,Y,Z ==> Vertex 2
    5.00, 8.00, 4.00,  !- X,Y,Z ==> Vertex 3
    5.00, 0.00, 4.00;  !- X,Y,Z ==> Vertex 4

  BuildingSurface:Detailed,
    Lobby_Wall_North,                  !- Name
    Wall,             !- Surface Type
    Interior_Partition,                !- Construction Name
    Lobby,             !- Zone Name
    ,                        !- Space Name
    Surface,             !- Outside Boundary Condition
    Rest Room_Wall_South,         !- Outside Boundary Condition Object
    NoSun,                   !- Sun Exposure
    NoWind,                  !- Wind Exposure
    0.50,                    !- View Factor to Ground
    4,                       !- Number of Vertices
    5.00, 8.00, 0.00,  !- X,Y,Z ==> Vertex 1
    0.00, 8.00, 0.00,  !- X,Y,Z ==> Vertex 2
    0.00, 8.00, 4.00,  !- X,Y,Z ==> Vertex 3
    5.00, 8.00, 4.00;  !- X,Y,Z ==> Vertex 4

  BuildingSurface:Detailed,
    Lobby_Wall_West,                  !- Name
    Wall,             !- Surface Type
    Interior_Partition,                !- Construction Name
    Lobby,             !- Zone Name
    ,                        !- Space Name
    Surface,             !- Outside Boundary Condition
    Office_Wall_East,         !- Outside Boundary Condition Object
    NoSun,                   !- Sun Exposure
    NoWind,                  !- Wind Exposure
    0.50,                    !- View Factor to Ground
    4,                       !- Number of Vertices
    0.00, 8.00, 0.00,  !- X,Y,Z ==> Vertex 1
    0.00, 0.00, 0.00,  !- X,Y,Z ==> Vertex 2
    0.00, 0.00, 4.00,  !- X,Y,Z ==> Vertex 3
    0.00, 8.00, 4.00;  !- X,Y,Z ==> Vertex 4

  BuildingSurface:Detailed,
    Lobby_Roof,                  !- Name
    Roof,             !- Surface Type
    {ROOF_CONSTR},                !- Construction Name
    Lobby,             !- Zone Name
    ,                        !- Space Name
    Outdoors,             !- Outside Boundary Condition
    ,         !- Outside Boundary Condition Object
    SunExposed,                   !- Sun Exposure
    WindExposed,                  !- Wind Exposure
    0,                    !- View Factor to Ground
    4,                       !- Number of Vertices
    0.00, 8.00, 4.00,  !- X,Y,Z ==> Vertex 1
    0.00, 0.00, 4.00,  !- X,Y,Z ==> Vertex 2
    5.00, 0.00, 4.00,  !- X,Y,Z ==> Vertex 3
    5.00, 8.00, 4.00;  !- X,Y,Z ==> Vertex 4

  BuildingSurface:Detailed,
    Lobby_Floor,                  !- Name
    Floor,             !- Surface Type
    {FLOOR_CONSTR},                !- Construction Name
    Lobby,             !- Zone Name
    ,                        !- Space Name
    Ground,             !- Outside Boundary Condition
    ,         !- Outside Boundary Condition Object
    NoSun,                   !- Sun Exposure
    NoWind,                  !- Wind Exposure
    0,                    !- View Factor to Ground
    4,                       !- Number of Vertices
    0.00, 8.00, 0.00,  !- X,Y,Z ==> Vertex 1
    5.00, 8.00, 0.00,  !- X,Y,Z ==> Vertex 2
    5.00, 0.00, 0.00,  !- X,Y,Z ==> Vertex 3
    0.00, 0.00, 0.00;  !- X,Y,Z ==> Vertex 4

  Zone,
    Rest Room,                  !- Name
    0,                       !- Direction of Relative North {deg}
    6.00,                !- X Origin {m}
    8.00,                !- Y Origin {m}
    0.00,                !- Z Origin {m}
    1,                       !- Type
    1,                       !- Multiplier
    autocalculate,           !- Ceiling Height {m}
    autocalculate;           !- Volume {m3}

  BuildingSurface:Detailed,
    Rest Room_Wall_South,                  !- Name
    Wall,             !- Surface Type
    Interior_Partition,                !- Construction Name
    Rest Room,             !- Zone Name
    ,                        !- Space Name
    Surface,             !- Outside Boundary Condition
    Lobby_Wall_North,         !- Outside Boundary Condition Object
    NoSun,                   !- Sun Exposure
    NoWind,                  !- Wind Exposure
    0.50,                    !- View Factor to Ground
    4,                       !- Number of Vertices
    0.00, 0.00, 0.00,  !- X,Y,Z ==> Vertex 1
    5.00, 0.00, 0.00,  !- X,Y,Z ==> Vertex 2
    5.00, 0.00, 4.00,  !- X,Y,Z ==> Vertex 3
    0.00, 0.00, 4.00;  !- X,Y,Z ==> Vertex 4

  BuildingSurface:Detailed,
    Rest Room_Wall_East,                  !- Name
    Wall,             !- Surface Type
    Medium Exterior Wall,                !- Construction Name
    Rest Room,             !- Zone Name
    ,                        !- Space Name
    Outdoors,             !- Outside Boundary Condition
    ,         !- Outside Boundary Condition Object
    SunExposed,                   !- Sun Exposure
    WindExposed,                  !- Wind Exposure
    0.50,                    !- View Factor to Ground
    4,                       !- Number of Vertices
    5.00, 0.00, 0.00,  !- X,Y,Z ==> Vertex 1
    5.00, 4.00, 0.00,  !- X,Y,Z ==> Vertex 2
    5.00, 4.00, 4.00,  !- X,Y,Z ==> Vertex 3
    5.00, 0.00, 4.00;  !- X,Y,Z ==> Vertex 4

  BuildingSurface:Detailed,
    Rest Room_Wall_North,                  !- Name
    Wall,             !- Surface Type
    Medium Exterior Wall,                !- Construction Name
    Rest Room,             !- Zone Name
    ,                        !- Space Name
    Outdoors,             !- Outside Boundary Condition
    ,         !- Outside Boundary Condition Object
    SunExposed,                   !- Sun Exposure
    WindExposed,                  !- Wind Exposure
    0.50,                    !- View Factor to Ground
    4,                       !- Number of Vertices
    5.00, 4.00, 0.00,  !- X,Y,Z ==> Vertex 1
    0.00, 4.00, 0.00,  !- X,Y,Z ==> Vertex 2
    0.00, 4.00, 4.00,  !- X,Y,Z ==> Vertex 3
    5.00, 4.00, 4.00;  !- X,Y,Z ==> Vertex 4

  BuildingSurface:Detailed,
    Rest Room_Wall_West,                  !- Name
    Wall,             !- Surface Type
    Interior_Partition,                !- Construction Name
    Rest Room,             !- Zone Name
    ,                        !- Space Name
    Surface,             !- Outside Boundary Condition
    Meeting Room_Wall_East,         !- Outside Boundary Condition Object
    NoSun,                   !- Sun Exposure
    NoWind,                  !- Wind Exposure
    0.50,                    !- View Factor to Ground
    4,                       !- Number of Vertices
    0.00, 4.00, 0.00,  !- X,Y,Z ==> Vertex 1
    0.00, 0.00, 0.00,  !- X,Y,Z ==> Vertex 2
    0.00, 0.00, 4.00,  !- X,Y,Z ==> Vertex 3
    0.00, 4.00, 4.00;  !- X,Y,Z ==> Vertex 4

  BuildingSurface:Detailed,
    Rest Room_Roof,                  !- Name
    Roof,             !- Surface Type
    {ROOF_CONSTR},                !- Construction Name
    Rest Room,             !- Zone Name
    ,                        !- Space Name
    Outdoors,             !- Outside Boundary Condition
    ,         !- Outside Boundary Condition Object
    SunExposed,                   !- Sun Exposure
    WindExposed,                  !- Wind Exposure
    0,                    !- View Factor to Ground
    4,                       !- Number of Vertices
    0.00, 4.00, 4.00,  !- X,Y,Z ==> Vertex 1
    0.00, 0.00, 4.00,  !- X,Y,Z ==> Vertex 2
    5.00, 0.00, 4.00,  !- X,Y,Z ==> Vertex 3
    5.00, 4.00, 4.00;  !- X,Y,Z ==> Vertex 4

  BuildingSurface:Detailed,
    Rest Room_Floor,                  !- Name
    Floor,             !- Surface Type
    {FLOOR_CONSTR},                !- Construction Name
    Rest Room,             !- Zone Name
    ,                        !- Space Name
    Ground,             !- Outside Boundary Condition
    ,         !- Outside Boundary Condition Object
    NoSun,                   !- Sun Exposure
    NoWind,                  !- Wind Exposure
    0,                    !- View Factor to Ground
    4,                       !- Number of Vertices
    0.00, 4.00, 0.00,  !- X,Y,Z ==> Vertex 1
    5.00, 4.00, 0.00,  !- X,Y,Z ==> Vertex 2
    5.00, 0.00, 0.00,  !- X,Y,Z ==> Vertex 3
    0.00, 0.00, 0.00;  !- X,Y,Z ==> Vertex 4

  Material,
    Interior_Partition_Material, !- Name
    MediumSmooth,            !- Roughness
    0.1,                     !- Thickness {m}
    0.5,                     !- Conductivity {W/m-K}
    1000.0,                  !- Density {kg/m3}
    1000.0,                  !- Specific Heat {J/kg-K}
    0.9,                     !- Thermal Absorptance
    0.7,                     !- Solar Absorptance
    0.7;                     !- Visible Absorptance

  Construction,
    Interior_Partition,      !- Name
    Interior_Partition_Material; !- Outside Layer

  Material,
    Interior_Door_Material,  !- Name
    MediumSmooth,            !- Roughness
    0.045,                   !- Thickness {m}
    0.15,                    !- Conductivity {W/m-K}
    600.0,                   !- Density {kg/m3}
    1000.0,                  !- Specific Heat {J/kg-K}
    0.9,                     !- Thermal Absorptance
    0.6,                     !- Solar Absorptance
    0.6;                     !- Visible Absorptance

  Construction,
    Interior_Door_Constr,    !- Name
    Interior_Door_Material;  !- Outside Layer
